
---------- Begin Simulation Statistics ----------
final_tick                                   44748000                       # Number of ticks from beginning of simulation (restored from checkpoints and never reset)
host_inst_rate                                 629713                       # Simulator instruction rate (inst/s)
host_mem_usage                                 680316                       # Number of bytes of host memory used
host_op_rate                                   724572                       # Simulator op (including micro ops) rate (op/s)
host_seconds                                     0.02                       # Real time elapsed on the host
host_tick_rate                             2598412824                       # Simulator tick rate (ticks/s)
sim_freq                                 1000000000000                       # Frequency of simulated ticks
sim_insts                                       10778                       # Number of instructions simulated
sim_ops                                         12467                       # Number of ops (including micro ops) simulated
sim_seconds                                  0.000045                       # Number of seconds simulated
sim_ticks                                    44748000                       # Number of ticks simulated
system.cpu.Branches                              2212                       # Number of branches fetched
system.cpu.committedInsts                       10778                       # Number of instructions committed
system.cpu.committedOps                         12467                       # Number of ops (including micro ops) committed
system.cpu.dtb.accesses                             0                       # DTB accesses
system.cpu.dtb.align_faults                         0                       # Number of TLB faults due to alignment restrictions
system.cpu.dtb.domain_faults                        0                       # Number of TLB faults due to domain restrictions
system.cpu.dtb.flush_entries                        0                       # Number of entries that have been flushed from TLB
system.cpu.dtb.flush_tlb                            0                       # Number of times complete TLB was flushed
system.cpu.dtb.flush_tlb_asid                       0                       # Number of times TLB was flushed by ASID
system.cpu.dtb.flush_tlb_mva                        0                       # Number of times TLB was flushed by MVA
system.cpu.dtb.flush_tlb_mva_asid                   0                       # Number of times TLB was flushed by MVA & ASID
system.cpu.dtb.hits                                 0                       # DTB hits
system.cpu.dtb.inst_accesses                        0                       # ITB inst accesses
system.cpu.dtb.inst_hits                            0                       # ITB inst hits
system.cpu.dtb.inst_misses                          0                       # ITB inst misses
system.cpu.dtb.misses                               0                       # DTB misses
system.cpu.dtb.perms_faults                         0                       # Number of TLB faults due to permissions restrictions
system.cpu.dtb.prefetch_faults                      0                       # Number of TLB faults due to prefetch
system.cpu.dtb.read_accesses                        0                       # DTB read accesses
system.cpu.dtb.read_hits                            0                       # DTB read hits
system.cpu.dtb.read_misses                          0                       # DTB read misses
system.cpu.dtb.stage2_mmu.stage2_tlb.accesses            0                       # DTB accesses
system.cpu.dtb.stage2_mmu.stage2_tlb.align_faults            0                       # Number of TLB faults due to alignment restrictions
system.cpu.dtb.stage2_mmu.stage2_tlb.domain_faults            0                       # Number of TLB faults due to domain restrictions
system.cpu.dtb.stage2_mmu.stage2_tlb.flush_entries            0                       # Number of entries that have been flushed from TLB
system.cpu.dtb.stage2_mmu.stage2_tlb.flush_tlb            0                       # Number of times complete TLB was flushed
system.cpu.dtb.stage2_mmu.stage2_tlb.flush_tlb_asid            0                       # Number of times TLB was flushed by ASID
system.cpu.dtb.stage2_mmu.stage2_tlb.flush_tlb_mva            0                       # Number of times TLB was flushed by MVA
system.cpu.dtb.stage2_mmu.stage2_tlb.flush_tlb_mva_asid            0                       # Number of times TLB was flushed by MVA & ASID
system.cpu.dtb.stage2_mmu.stage2_tlb.hits            0                       # DTB hits
system.cpu.dtb.stage2_mmu.stage2_tlb.inst_accesses            0                       # ITB inst accesses
system.cpu.dtb.stage2_mmu.stage2_tlb.inst_hits            0                       # ITB inst hits
system.cpu.dtb.stage2_mmu.stage2_tlb.inst_misses            0                       # ITB inst misses
system.cpu.dtb.stage2_mmu.stage2_tlb.misses            0                       # DTB misses
system.cpu.dtb.stage2_mmu.stage2_tlb.perms_faults            0                       # Number of TLB faults due to permissions restrictions
system.cpu.dtb.stage2_mmu.stage2_tlb.prefetch_faults            0                       # Number of TLB faults due to prefetch
system.cpu.dtb.stage2_mmu.stage2_tlb.read_accesses            0                       # DTB read accesses
system.cpu.dtb.stage2_mmu.stage2_tlb.read_hits            0                       # DTB read hits
system.cpu.dtb.stage2_mmu.stage2_tlb.read_misses            0                       # DTB read misses
system.cpu.dtb.stage2_mmu.stage2_tlb.walker.walkRequestOrigin_Requested::Data            0                       # Table walker requests started/completed, data/inst
system.cpu.dtb.stage2_mmu.stage2_tlb.walker.walkRequestOrigin_Requested::Inst            0                       # Table walker requests started/completed, data/inst
system.cpu.dtb.stage2_mmu.stage2_tlb.walker.walkRequestOrigin_Requested::total            0                       # Table walker requests started/completed, data/inst
system.cpu.dtb.stage2_mmu.stage2_tlb.walker.walkRequestOrigin_Completed::Data            0                       # Table walker requests started/completed, data/inst
system.cpu.dtb.stage2_mmu.stage2_tlb.walker.walkRequestOrigin_Completed::Inst            0                       # Table walker requests started/completed, data/inst
system.cpu.dtb.stage2_mmu.stage2_tlb.walker.walkRequestOrigin_Completed::total            0                       # Table walker requests started/completed, data/inst
system.cpu.dtb.stage2_mmu.stage2_tlb.walker.walkRequestOrigin::total            0                       # Table walker requests started/completed, data/inst
system.cpu.dtb.stage2_mmu.stage2_tlb.walker.walks            0                       # Table walker walks requested
system.cpu.dtb.stage2_mmu.stage2_tlb.write_accesses            0                       # DTB write accesses
system.cpu.dtb.stage2_mmu.stage2_tlb.write_hits            0                       # DTB write hits
system.cpu.dtb.stage2_mmu.stage2_tlb.write_misses            0                       # DTB write misses
system.cpu.dtb.walker.walkRequestOrigin_Requested::Data            0                       # Table walker requests started/completed, data/inst
system.cpu.dtb.walker.walkRequestOrigin_Requested::Inst            0                       # Table walker requests started/completed, data/inst
system.cpu.dtb.walker.walkRequestOrigin_Requested::total            0                       # Table walker requests started/completed, data/inst
system.cpu.dtb.walker.walkRequestOrigin_Completed::Data            0                       # Table walker requests started/completed, data/inst
system.cpu.dtb.walker.walkRequestOrigin_Completed::Inst            0                       # Table walker requests started/completed, data/inst
system.cpu.dtb.walker.walkRequestOrigin_Completed::total            0                       # Table walker requests started/completed, data/inst
system.cpu.dtb.walker.walkRequestOrigin::total            0                       # Table walker requests started/completed, data/inst
system.cpu.dtb.walker.walks                         0                       # Table walker walks requested
system.cpu.dtb.write_accesses                       0                       # DTB write accesses
system.cpu.dtb.write_hits                           0                       # DTB write hits
system.cpu.dtb.write_misses                         0                       # DTB write misses
system.cpu.idle_fraction                     0.000000                       # Percentage of idle cycles
system.cpu.itb.accesses                             0                       # DTB accesses
system.cpu.itb.align_faults                         0                       # Number of TLB faults due to alignment restrictions
system.cpu.itb.domain_faults                        0                       # Number of TLB faults due to domain restrictions
system.cpu.itb.flush_entries                        0                       # Number of entries that have been flushed from TLB
system.cpu.itb.flush_tlb                            0                       # Number of times complete TLB was flushed
system.cpu.itb.flush_tlb_asid                       0                       # Number of times TLB was flushed by ASID
system.cpu.itb.flush_tlb_mva                        0                       # Number of times TLB was flushed by MVA
system.cpu.itb.flush_tlb_mva_asid                   0                       # Number of times TLB was flushed by MVA & ASID
system.cpu.itb.hits                                 0                       # DTB hits
system.cpu.itb.inst_accesses                        0                       # ITB inst accesses
system.cpu.itb.inst_hits                            0                       # ITB inst hits
system.cpu.itb.inst_misses                          0                       # ITB inst misses
system.cpu.itb.misses                               0                       # DTB misses
system.cpu.itb.perms_faults                         0                       # Number of TLB faults due to permissions restrictions
system.cpu.itb.prefetch_faults                      0                       # Number of TLB faults due to prefetch
system.cpu.itb.read_accesses                        0                       # DTB read accesses
system.cpu.itb.read_hits                            0                       # DTB read hits
system.cpu.itb.read_misses                          0                       # DTB read misses
system.cpu.itb.stage2_mmu.stage2_tlb.accesses            0                       # DTB accesses
system.cpu.itb.stage2_mmu.stage2_tlb.align_faults            0                       # Number of TLB faults due to alignment restrictions
system.cpu.itb.stage2_mmu.stage2_tlb.domain_faults            0                       # Number of TLB faults due to domain restrictions
system.cpu.itb.stage2_mmu.stage2_tlb.flush_entries            0                       # Number of entries that have been flushed from TLB
system.cpu.itb.stage2_mmu.stage2_tlb.flush_tlb            0                       # Number of times complete TLB was flushed
system.cpu.itb.stage2_mmu.stage2_tlb.flush_tlb_asid            0                       # Number of times TLB was flushed by ASID
system.cpu.itb.stage2_mmu.stage2_tlb.flush_tlb_mva            0                       # Number of times TLB was flushed by MVA
system.cpu.itb.stage2_mmu.stage2_tlb.flush_tlb_mva_asid            0                       # Number of times TLB was flushed by MVA & ASID
system.cpu.itb.stage2_mmu.stage2_tlb.hits            0                       # DTB hits
system.cpu.itb.stage2_mmu.stage2_tlb.inst_accesses            0                       # ITB inst accesses
system.cpu.itb.stage2_mmu.stage2_tlb.inst_hits            0                       # ITB inst hits
system.cpu.itb.stage2_mmu.stage2_tlb.inst_misses            0                       # ITB inst misses
system.cpu.itb.stage2_mmu.stage2_tlb.misses            0                       # DTB misses
system.cpu.itb.stage2_mmu.stage2_tlb.perms_faults            0                       # Number of TLB faults due to permissions restrictions
system.cpu.itb.stage2_mmu.stage2_tlb.prefetch_faults            0                       # Number of TLB faults due to prefetch
system.cpu.itb.stage2_mmu.stage2_tlb.read_accesses            0                       # DTB read accesses
system.cpu.itb.stage2_mmu.stage2_tlb.read_hits            0                       # DTB read hits
system.cpu.itb.stage2_mmu.stage2_tlb.read_misses            0                       # DTB read misses
system.cpu.itb.stage2_mmu.stage2_tlb.walker.walkRequestOrigin_Requested::Data            0                       # Table walker requests started/completed, data/inst
system.cpu.itb.stage2_mmu.stage2_tlb.walker.walkRequestOrigin_Requested::Inst            0                       # Table walker requests started/completed, data/inst
system.cpu.itb.stage2_mmu.stage2_tlb.walker.walkRequestOrigin_Requested::total            0                       # Table walker requests started/completed, data/inst
system.cpu.itb.stage2_mmu.stage2_tlb.walker.walkRequestOrigin_Completed::Data            0                       # Table walker requests started/completed, data/inst
system.cpu.itb.stage2_mmu.stage2_tlb.walker.walkRequestOrigin_Completed::Inst            0                       # Table walker requests started/completed, data/inst
system.cpu.itb.stage2_mmu.stage2_tlb.walker.walkRequestOrigin_Completed::total            0                       # Table walker requests started/completed, data/inst
system.cpu.itb.stage2_mmu.stage2_tlb.walker.walkRequestOrigin::total            0                       # Table walker requests started/completed, data/inst
system.cpu.itb.stage2_mmu.stage2_tlb.walker.walks            0                       # Table walker walks requested
system.cpu.itb.stage2_mmu.stage2_tlb.write_accesses            0                       # DTB write accesses
system.cpu.itb.stage2_mmu.stage2_tlb.write_hits            0                       # DTB write hits
system.cpu.itb.stage2_mmu.stage2_tlb.write_misses            0                       # DTB write misses
system.cpu.itb.walker.walkRequestOrigin_Requested::Data            0                       # Table walker requests started/completed, data/inst
system.cpu.itb.walker.walkRequestOrigin_Requested::Inst            0                       # Table walker requests started/completed, data/inst
system.cpu.itb.walker.walkRequestOrigin_Requested::total            0                       # Table walker requests started/completed, data/inst
system.cpu.itb.walker.walkRequestOrigin_Completed::Data            0                       # Table walker requests started/completed, data/inst
system.cpu.itb.walker.walkRequestOrigin_Completed::Inst            0                       # Table walker requests started/completed, data/inst
system.cpu.itb.walker.walkRequestOrigin_Completed::total            0                       # Table walker requests started/completed, data/inst
system.cpu.itb.walker.walkRequestOrigin::total            0                       # Table walker requests started/completed, data/inst
system.cpu.itb.walker.walks                         0                       # Table walker walks requested
system.cpu.itb.write_accesses                       0                       # DTB write accesses
system.cpu.itb.write_hits                           0                       # DTB write hits
system.cpu.itb.write_misses                         0                       # DTB write misses
system.cpu.not_idle_fraction                 1.000000                       # Percentage of non-idle cycles
system.cpu.numCycles                            89496                       # number of cpu cycles simulated
system.cpu.numWorkItemsCompleted                    0                       # number of work items this cpu completed
system.cpu.numWorkItemsStarted                      0                       # number of work items this cpu started
system.cpu.num_busy_cycles               89495.998000                       # Number of busy cycles
system.cpu.num_cc_register_reads                43647                       # number of times the CC registers were read
system.cpu.num_cc_register_writes                6074                       # number of times the CC registers were written
system.cpu.num_conditional_control_insts         1558                       # number of instructions that are conditional controls
system.cpu.num_fp_alu_accesses                      0                       # Number of float alu accesses
system.cpu.num_fp_insts                             0                       # number of float instructions
system.cpu.num_fp_register_reads                    0                       # number of times the floating registers were read
system.cpu.num_fp_register_writes                   0                       # number of times the floating registers were written
system.cpu.num_func_calls                         437                       # number of times a function call or return occured
system.cpu.num_idle_cycles                   0.002000                       # Number of idle cycles
system.cpu.num_int_alu_accesses                 10803                       # Number of integer alu accesses
system.cpu.num_int_insts                        10803                       # number of integer instructions
system.cpu.num_int_register_reads               18220                       # number of times the integer registers were read
system.cpu.num_int_register_writes               7331                       # number of times the integer registers were written
system.cpu.num_load_insts                        2135                       # Number of load instructions
system.cpu.num_mem_refs                          4313                       # number of memory refs
system.cpu.num_store_insts                       2178                       # Number of store instructions
system.cpu.num_vec_alu_accesses                     0                       # Number of vector alu accesses
system.cpu.num_vec_insts                            0                       # number of vector instructions
system.cpu.num_vec_register_reads                 270                       # number of times the vector registers were read
system.cpu.num_vec_register_writes                182                       # number of times the vector registers were written
system.cpu.op_class::No_OpClass                     0      0.00%      0.00% # Class of executed instruction
system.cpu.op_class::IntAlu                      8164     64.74%     64.74% # Class of executed instruction
system.cpu.op_class::IntMult                       43      0.34%     65.08% # Class of executed instruction
system.cpu.op_class::IntDiv                         0      0.00%     65.08% # Class of executed instruction
system.cpu.op_class::FloatAdd                       0      0.00%     65.08% # Class of executed instruction
system.cpu.op_class::FloatCmp                       0      0.00%     65.08% # Class of executed instruction
system.cpu.op_class::FloatCvt                       0      0.00%     65.08% # Class of executed instruction
system.cpu.op_class::FloatMult                      0      0.00%     65.08% # Class of executed instruction
system.cpu.op_class::FloatMultAcc                   0      0.00%     65.08% # Class of executed instruction
system.cpu.op_class::FloatDiv                       0      0.00%     65.08% # Class of executed instruction
system.cpu.op_class::FloatMisc                      0      0.00%     65.08% # Class of executed instruction
system.cpu.op_class::FloatSqrt                      0      0.00%     65.08% # Class of executed instruction
system.cpu.op_class::SimdAdd                        0      0.00%     65.08% # Class of executed instruction
system.cpu.op_class::SimdAddAcc                     0      0.00%     65.08% # Class of executed instruction
system.cpu.op_class::SimdAlu                        0      0.00%     65.08% # Class of executed instruction
system.cpu.op_class::SimdCmp                        0      0.00%     65.08% # Class of executed instruction
system.cpu.op_class::SimdCvt                        0      0.00%     65.08% # Class of executed instruction
system.cpu.op_class::SimdMisc                       0      0.00%     65.08% # Class of executed instruction
system.cpu.op_class::SimdMult                       0      0.00%     65.08% # Class of executed instruction
system.cpu.op_class::SimdMultAcc                    0      0.00%     65.08% # Class of executed instruction
system.cpu.op_class::SimdShift                      0      0.00%     65.08% # Class of executed instruction
system.cpu.op_class::SimdShiftAcc                   0      0.00%     65.08% # Class of executed instruction
system.cpu.op_class::SimdDiv                        0      0.00%     65.08% # Class of executed instruction
system.cpu.op_class::SimdSqrt                       0      0.00%     65.08% # Class of executed instruction
system.cpu.op_class::SimdFloatAdd                  10      0.08%     65.16% # Class of executed instruction
system.cpu.op_class::SimdFloatAlu                   0      0.00%     65.16% # Class of executed instruction
system.cpu.op_class::SimdFloatCmp                   4      0.03%     65.19% # Class of executed instruction
system.cpu.op_class::SimdFloatCvt                   0      0.00%     65.19% # Class of executed instruction
system.cpu.op_class::SimdFloatDiv                   4      0.03%     65.22% # Class of executed instruction
system.cpu.op_class::SimdFloatMisc                 57      0.45%     65.67% # Class of executed instruction
system.cpu.op_class::SimdFloatMult                  9      0.07%     65.74% # Class of executed instruction
system.cpu.op_class::SimdFloatMultAcc               7      0.06%     65.80% # Class of executed instruction
system.cpu.op_class::SimdFloatSqrt                  0      0.00%     65.80% # Class of executed instruction
system.cpu.op_class::SimdReduceAdd                  0      0.00%     65.80% # Class of executed instruction
system.cpu.op_class::SimdReduceAlu                  0      0.00%     65.80% # Class of executed instruction
system.cpu.op_class::SimdReduceCmp                  0      0.00%     65.80% # Class of executed instruction
system.cpu.op_class::SimdFloatReduceAdd             0      0.00%     65.80% # Class of executed instruction
system.cpu.op_class::SimdFloatReduceCmp             0      0.00%     65.80% # Class of executed instruction
system.cpu.op_class::SimdAes                        0      0.00%     65.80% # Class of executed instruction
system.cpu.op_class::SimdAesMix                     0      0.00%     65.80% # Class of executed instruction
system.cpu.op_class::SimdSha1Hash                   0      0.00%     65.80% # Class of executed instruction
system.cpu.op_class::SimdSha1Hash2                  0      0.00%     65.80% # Class of executed instruction
system.cpu.op_class::SimdSha256Hash                 0      0.00%     65.80% # Class of executed instruction
system.cpu.op_class::SimdSha256Hash2                0      0.00%     65.80% # Class of executed instruction
system.cpu.op_class::SimdShaSigma2                  0      0.00%     65.80% # Class of executed instruction
system.cpu.op_class::SimdShaSigma3                  0      0.00%     65.80% # Class of executed instruction
system.cpu.op_class::SimdPredAlu                    0      0.00%     65.80% # Class of executed instruction
system.cpu.op_class::MemRead                     2135     16.93%     82.73% # Class of executed instruction
system.cpu.op_class::MemWrite                    2178     17.27%    100.00% # Class of executed instruction
system.cpu.op_class::FloatMemRead                   0      0.00%    100.00% # Class of executed instruction
system.cpu.op_class::FloatMemWrite                  0      0.00%    100.00% # Class of executed instruction
system.cpu.op_class::IprAccess                      0      0.00%    100.00% # Class of executed instruction
system.cpu.op_class::InstPrefetch                   0      0.00%    100.00% # Class of executed instruction
system.cpu.op_class::total                      12611                       # Class of executed instruction
system.cpu.workload.numSyscalls                    12                       # Number of system calls
system.membus.snoop_filter.hit_multi_requests            1                       # Number of requests hitting in the snoop filter with multiple (>1) holders of the requested data.
system.membus.snoop_filter.hit_multi_snoops            0                       # Number of snoops hitting in the snoop filter with multiple (>1) holders of the requested data.
system.membus.snoop_filter.hit_single_requests           70                       # Number of requests hitting in the snoop filter with a single holder of the requested data.
system.membus.snoop_filter.hit_single_snoops            0                       # Number of snoops hitting in the snoop filter with a single holder of the requested data.
system.membus.snoop_filter.tot_requests           533                       # Total number of requests made to the snoop filter.
system.membus.snoop_filter.tot_snoops               0                       # Total number of snoops made to the snoop filter.
system.membus.pwrStateResidencyTicks::UNDEFINED     44748000                       # Cumulative time (in ticks) in various power states
system.membus.trans_dist::ReadResp                422                       # Transaction distribution
system.membus.trans_dist::WritebackClean           55                       # Transaction distribution
system.membus.trans_dist::ReadExReq                56                       # Transaction distribution
system.membus.trans_dist::ReadExResp               56                       # Transaction distribution
system.membus.trans_dist::ReadCleanReq            327                       # Transaction distribution
system.membus.trans_dist::ReadSharedReq            95                       # Transaction distribution
system.membus.pkt_count_system.cpu.icache.mem_side::system.mem_ctrls.port          709                       # Packet count per connected master and slave (bytes)
system.membus.pkt_count_system.cpu.dcache.mem_side::system.mem_ctrls.port          302                       # Packet count per connected master and slave (bytes)
system.membus.pkt_count::total                   1011                       # Packet count per connected master and slave (bytes)
system.membus.pkt_size_system.cpu.icache.mem_side::system.mem_ctrls.port        24448                       # Cumulative packet size per connected master and slave (bytes)
system.membus.pkt_size_system.cpu.dcache.mem_side::system.mem_ctrls.port         9664                       # Cumulative packet size per connected master and slave (bytes)
system.membus.pkt_size::total                   34112                       # Cumulative packet size per connected master and slave (bytes)
system.membus.snoops                                0                       # Total snoops (count)
system.membus.snoopTraffic                          0                       # Total snoop traffic (bytes)
system.membus.snoop_fanout::samples               478                       # Request fanout histogram
system.membus.snoop_fanout::mean             0.033473                       # Request fanout histogram
system.membus.snoop_fanout::stdev            0.180056                       # Request fanout histogram
system.membus.snoop_fanout::underflows              0      0.00%      0.00% # Request fanout histogram
system.membus.snoop_fanout::0                     462     96.65%     96.65% # Request fanout histogram
system.membus.snoop_fanout::1                      16      3.35%    100.00% # Request fanout histogram
system.membus.snoop_fanout::2                       0      0.00%    100.00% # Request fanout histogram
system.membus.snoop_fanout::overflows               0      0.00%    100.00% # Request fanout histogram
system.membus.snoop_fanout::min_value               0                       # Request fanout histogram
system.membus.snoop_fanout::max_value               1                       # Request fanout histogram
system.membus.snoop_fanout::total                 478                       # Request fanout histogram
system.membus.reqLayer0.occupancy              757500                       # Layer occupancy (ticks)
system.membus.reqLayer0.utilization               1.7                       # Layer utilization (%)
system.membus.respLayer1.occupancy            1740000                       # Layer occupancy (ticks)
system.membus.respLayer1.utilization              3.9                       # Layer utilization (%)
system.membus.respLayer2.occupancy             811000                       # Layer occupancy (ticks)
system.membus.respLayer2.utilization              1.8                       # Layer utilization (%)
system.voltage_domain.voltage                       1                       # Voltage in Volts
system.clk_domain.clock                          1000                       # Clock period in ticks
system.cpu_voltage_domain.voltage                   1                       # Voltage in Volts
system.mem_ctrls.pwrStateResidencyTicks::UNDEFINED     44748000                       # Cumulative time (in ticks) in various power states
system.mem_ctrls.bytes_read::.cpu.inst          20928                       # Number of bytes read from this memory
system.mem_ctrls.bytes_read::.cpu.data           9664                       # Number of bytes read from this memory
system.mem_ctrls.bytes_read::total              30592                       # Number of bytes read from this memory
system.mem_ctrls.bytes_inst_read::.cpu.inst        20928                       # Number of instructions bytes read from this memory
system.mem_ctrls.bytes_inst_read::total         20928                       # Number of instructions bytes read from this memory
system.mem_ctrls.num_reads::.cpu.inst             327                       # Number of read requests responded to by this memory
system.mem_ctrls.num_reads::.cpu.data             151                       # Number of read requests responded to by this memory
system.mem_ctrls.num_reads::total                 478                       # Number of read requests responded to by this memory
system.mem_ctrls.bw_read::.cpu.inst         467685707                       # Total read bandwidth from this memory (bytes/s)
system.mem_ctrls.bw_read::.cpu.data         215964959                       # Total read bandwidth from this memory (bytes/s)
system.mem_ctrls.bw_read::total             683650666                       # Total read bandwidth from this memory (bytes/s)
system.mem_ctrls.bw_inst_read::.cpu.inst    467685707                       # Instruction read bandwidth from this memory (bytes/s)
system.mem_ctrls.bw_inst_read::total        467685707                       # Instruction read bandwidth from this memory (bytes/s)
system.mem_ctrls.bw_total::.cpu.inst        467685707                       # Total bandwidth to/from this memory (bytes/s)
system.mem_ctrls.bw_total::.cpu.data        215964959                       # Total bandwidth to/from this memory (bytes/s)
system.mem_ctrls.bw_total::total            683650666                       # Total bandwidth to/from this memory (bytes/s)
system.mem_ctrls.avgPriority_.writebacks::samples        52.00                       # Average QoS priority value for accepted requests
system.mem_ctrls.avgPriority_.cpu.inst::samples       323.00                       # Average QoS priority value for accepted requests
system.mem_ctrls.avgPriority_.cpu.data::samples       151.00                       # Average QoS priority value for accepted requests
system.mem_ctrls.priorityMinLatency      0.000000018750                       # per QoS priority minimum request to response latency (s)
system.mem_ctrls.priorityMaxLatency      0.000060512500                       # per QoS priority maximum request to response latency (s)
system.mem_ctrls.numReadWriteTurnArounds            2                       # Number of turnarounds from READ to WRITE
system.mem_ctrls.numWriteReadTurnArounds            2                       # Number of turnarounds from WRITE to READ
system.mem_ctrls.numStayReadState                1010                       # Number of times bus staying in READ state
system.mem_ctrls.numStayWriteState                 30                       # Number of times bus staying in WRITE state
system.mem_ctrls.readReqs                         478                       # Number of read requests accepted
system.mem_ctrls.writeReqs                         54                       # Number of write requests accepted
system.mem_ctrls.readBursts                       478                       # Number of DRAM read bursts, including those serviced by the write queue
system.mem_ctrls.writeBursts                       54                       # Number of DRAM write bursts, including those merged in the write queue
system.mem_ctrls.servicedByWrQ                      4                       # Number of DRAM read bursts serviced by the write queue
system.mem_ctrls.mergedWrBursts                     2                       # Number of DRAM write bursts merged with an existing one
system.mem_ctrls.neitherReadNorWriteReqs            0                       # Number of requests that are neither read nor write
system.mem_ctrls.perBankRdBursts::0                72                       # Per bank write bursts
system.mem_ctrls.perBankRdBursts::1                89                       # Per bank write bursts
system.mem_ctrls.perBankRdBursts::2                46                       # Per bank write bursts
system.mem_ctrls.perBankRdBursts::3                26                       # Per bank write bursts
system.mem_ctrls.perBankRdBursts::4                15                       # Per bank write bursts
system.mem_ctrls.perBankRdBursts::5                45                       # Per bank write bursts
system.mem_ctrls.perBankRdBursts::6                18                       # Per bank write bursts
system.mem_ctrls.perBankRdBursts::7                27                       # Per bank write bursts
system.mem_ctrls.perBankRdBursts::8                18                       # Per bank write bursts
system.mem_ctrls.perBankRdBursts::9                28                       # Per bank write bursts
system.mem_ctrls.perBankRdBursts::10               34                       # Per bank write bursts
system.mem_ctrls.perBankRdBursts::11               18                       # Per bank write bursts
system.mem_ctrls.perBankRdBursts::12                7                       # Per bank write bursts
system.mem_ctrls.perBankRdBursts::13                4                       # Per bank write bursts
system.mem_ctrls.perBankRdBursts::14                5                       # Per bank write bursts
system.mem_ctrls.perBankRdBursts::15               22                       # Per bank write bursts
system.mem_ctrls.perBankWrBursts::0                 0                       # Per bank write bursts
system.mem_ctrls.perBankWrBursts::1                 7                       # Per bank write bursts
system.mem_ctrls.perBankWrBursts::2                 0                       # Per bank write bursts
system.mem_ctrls.perBankWrBursts::3                 5                       # Per bank write bursts
system.mem_ctrls.perBankWrBursts::4                 0                       # Per bank write bursts
system.mem_ctrls.perBankWrBursts::5                 3                       # Per bank write bursts
system.mem_ctrls.perBankWrBursts::6                 0                       # Per bank write bursts
system.mem_ctrls.perBankWrBursts::7                 7                       # Per bank write bursts
system.mem_ctrls.perBankWrBursts::8                 3                       # Per bank write bursts
system.mem_ctrls.perBankWrBursts::9                 1                       # Per bank write bursts
system.mem_ctrls.perBankWrBursts::10                2                       # Per bank write bursts
system.mem_ctrls.perBankWrBursts::11                3                       # Per bank write bursts
system.mem_ctrls.perBankWrBursts::12                0                       # Per bank write bursts
system.mem_ctrls.perBankWrBursts::13                0                       # Per bank write bursts
system.mem_ctrls.perBankWrBursts::14                0                       # Per bank write bursts
system.mem_ctrls.perBankWrBursts::15                1                       # Per bank write bursts
system.mem_ctrls.avgRdQLen                       1.00                       # Average read queue length when enqueuing
system.mem_ctrls.avgWrQLen                      11.58                       # Average write queue length when enqueuing
system.mem_ctrls.totQLat                      3511250                       # Total ticks spent queuing
system.mem_ctrls.totBusLat                    2370000                       # Total ticks spent in databus transfers
system.mem_ctrls.totMemAccLat                12398750                       # Total ticks spent from burst creation until serviced by the DRAM
system.mem_ctrls.avgQLat                      7407.70                       # Average queueing delay per DRAM burst
system.mem_ctrls.avgBusLat                    5000.00                       # Average bus latency per DRAM burst
system.mem_ctrls.avgMemAccLat                26157.70                       # Average memory access latency per DRAM burst
system.mem_ctrls.numRdRetry                         0                       # Number of times read queue was full causing retry
system.mem_ctrls.numWrRetry                         0                       # Number of times write queue was full causing retry
system.mem_ctrls.readRowHits                      356                       # Number of row buffer hits during reads
system.mem_ctrls.writeRowHits                      23                       # Number of row buffer hits during writes
system.mem_ctrls.readRowHitRate                 75.11                       # Row buffer hit rate for reads
system.mem_ctrls.writeRowHitRate                44.23                       # Row buffer hit rate for writes
system.mem_ctrls.readPktSize::0                     0                       # Read request sizes (log2)
system.mem_ctrls.readPktSize::1                     0                       # Read request sizes (log2)
system.mem_ctrls.readPktSize::2                     0                       # Read request sizes (log2)
system.mem_ctrls.readPktSize::3                     0                       # Read request sizes (log2)
system.mem_ctrls.readPktSize::4                     0                       # Read request sizes (log2)
system.mem_ctrls.readPktSize::5                     0                       # Read request sizes (log2)
system.mem_ctrls.readPktSize::6                   478                       # Read request sizes (log2)
system.mem_ctrls.writePktSize::0                    0                       # Write request sizes (log2)
system.mem_ctrls.writePktSize::1                    0                       # Write request sizes (log2)
system.mem_ctrls.writePktSize::2                    0                       # Write request sizes (log2)
system.mem_ctrls.writePktSize::3                    0                       # Write request sizes (log2)
system.mem_ctrls.writePktSize::4                    0                       # Write request sizes (log2)
system.mem_ctrls.writePktSize::5                    0                       # Write request sizes (log2)
system.mem_ctrls.writePktSize::6                   54                       # Write request sizes (log2)
system.mem_ctrls.rdQLenPdf::0                     472                       # What read queue length does an incoming req see
system.mem_ctrls.rdQLenPdf::1                       2                       # What read queue length does an incoming req see
system.mem_ctrls.rdQLenPdf::2                       0                       # What read queue length does an incoming req see
system.mem_ctrls.rdQLenPdf::3                       0                       # What read queue length does an incoming req see
system.mem_ctrls.rdQLenPdf::4                       0                       # What read queue length does an incoming req see
system.mem_ctrls.rdQLenPdf::5                       0                       # What read queue length does an incoming req see
system.mem_ctrls.rdQLenPdf::6                       0                       # What read queue length does an incoming req see
system.mem_ctrls.rdQLenPdf::7                       0                       # What read queue length does an incoming req see
system.mem_ctrls.rdQLenPdf::8                       0                       # What read queue length does an incoming req see
system.mem_ctrls.rdQLenPdf::9                       0                       # What read queue length does an incoming req see
system.mem_ctrls.rdQLenPdf::10                      0                       # What read queue length does an incoming req see
system.mem_ctrls.rdQLenPdf::11                      0                       # What read queue length does an incoming req see
system.mem_ctrls.rdQLenPdf::12                      0                       # What read queue length does an incoming req see
system.mem_ctrls.rdQLenPdf::13                      0                       # What read queue length does an incoming req see
system.mem_ctrls.rdQLenPdf::14                      0                       # What read queue length does an incoming req see
system.mem_ctrls.rdQLenPdf::15                      0                       # What read queue length does an incoming req see
system.mem_ctrls.rdQLenPdf::16                      0                       # What read queue length does an incoming req see
system.mem_ctrls.rdQLenPdf::17                      0                       # What read queue length does an incoming req see
system.mem_ctrls.rdQLenPdf::18                      0                       # What read queue length does an incoming req see
system.mem_ctrls.rdQLenPdf::19                      0                       # What read queue length does an incoming req see
system.mem_ctrls.rdQLenPdf::20                      0                       # What read queue length does an incoming req see
system.mem_ctrls.rdQLenPdf::21                      0                       # What read queue length does an incoming req see
system.mem_ctrls.rdQLenPdf::22                      0                       # What read queue length does an incoming req see
system.mem_ctrls.rdQLenPdf::23                      0                       # What read queue length does an incoming req see
system.mem_ctrls.rdQLenPdf::24                      0                       # What read queue length does an incoming req see
system.mem_ctrls.rdQLenPdf::25                      0                       # What read queue length does an incoming req see
system.mem_ctrls.rdQLenPdf::26                      0                       # What read queue length does an incoming req see
system.mem_ctrls.rdQLenPdf::27                      0                       # What read queue length does an incoming req see
system.mem_ctrls.rdQLenPdf::28                      0                       # What read queue length does an incoming req see
system.mem_ctrls.rdQLenPdf::29                      0                       # What read queue length does an incoming req see
system.mem_ctrls.rdQLenPdf::30                      0                       # What read queue length does an incoming req see
system.mem_ctrls.rdQLenPdf::31                      0                       # What read queue length does an incoming req see
system.mem_ctrls.wrQLenPdf::0                       1                       # What write queue length does an incoming req see
system.mem_ctrls.wrQLenPdf::1                       1                       # What write queue length does an incoming req see
system.mem_ctrls.wrQLenPdf::2                       1                       # What write queue length does an incoming req see
system.mem_ctrls.wrQLenPdf::3                       1                       # What write queue length does an incoming req see
system.mem_ctrls.wrQLenPdf::4                       1                       # What write queue length does an incoming req see
system.mem_ctrls.wrQLenPdf::5                       1                       # What write queue length does an incoming req see
system.mem_ctrls.wrQLenPdf::6                       1                       # What write queue length does an incoming req see
system.mem_ctrls.wrQLenPdf::7                       1                       # What write queue length does an incoming req see
system.mem_ctrls.wrQLenPdf::8                       1                       # What write queue length does an incoming req see
system.mem_ctrls.wrQLenPdf::9                       1                       # What write queue length does an incoming req see
system.mem_ctrls.wrQLenPdf::10                      1                       # What write queue length does an incoming req see
system.mem_ctrls.wrQLenPdf::11                      1                       # What write queue length does an incoming req see
system.mem_ctrls.wrQLenPdf::12                      1                       # What write queue length does an incoming req see
system.mem_ctrls.wrQLenPdf::13                      1                       # What write queue length does an incoming req see
system.mem_ctrls.wrQLenPdf::14                      1                       # What write queue length does an incoming req see
system.mem_ctrls.wrQLenPdf::15                      1                       # What write queue length does an incoming req see
system.mem_ctrls.wrQLenPdf::16                      1                       # What write queue length does an incoming req see
system.mem_ctrls.wrQLenPdf::17                      3                       # What write queue length does an incoming req see
system.mem_ctrls.wrQLenPdf::18                      3                       # What write queue length does an incoming req see
system.mem_ctrls.wrQLenPdf::19                      3                       # What write queue length does an incoming req see
system.mem_ctrls.wrQLenPdf::20                      2                       # What write queue length does an incoming req see
system.mem_ctrls.wrQLenPdf::21                      2                       # What write queue length does an incoming req see
system.mem_ctrls.wrQLenPdf::22                      2                       # What write queue length does an incoming req see
system.mem_ctrls.wrQLenPdf::23                      2                       # What write queue length does an incoming req see
system.mem_ctrls.wrQLenPdf::24                      2                       # What write queue length does an incoming req see
system.mem_ctrls.wrQLenPdf::25                      2                       # What write queue length does an incoming req see
system.mem_ctrls.wrQLenPdf::26                      2                       # What write queue length does an incoming req see
system.mem_ctrls.wrQLenPdf::27                      2                       # What write queue length does an incoming req see
system.mem_ctrls.wrQLenPdf::28                      2                       # What write queue length does an incoming req see
system.mem_ctrls.wrQLenPdf::29                      2                       # What write queue length does an incoming req see
system.mem_ctrls.wrQLenPdf::30                      2                       # What write queue length does an incoming req see
system.mem_ctrls.wrQLenPdf::31                      2                       # What write queue length does an incoming req see
system.mem_ctrls.wrQLenPdf::32                      2                       # What write queue length does an incoming req see
system.mem_ctrls.wrQLenPdf::33                      0                       # What write queue length does an incoming req see
system.mem_ctrls.wrQLenPdf::34                      0                       # What write queue length does an incoming req see
system.mem_ctrls.wrQLenPdf::35                      0                       # What write queue length does an incoming req see
system.mem_ctrls.wrQLenPdf::36                      0                       # What write queue length does an incoming req see
system.mem_ctrls.wrQLenPdf::37                      0                       # What write queue length does an incoming req see
system.mem_ctrls.wrQLenPdf::38                      0                       # What write queue length does an incoming req see
system.mem_ctrls.wrQLenPdf::39                      0                       # What write queue length does an incoming req see
system.mem_ctrls.wrQLenPdf::40                      0                       # What write queue length does an incoming req see
system.mem_ctrls.wrQLenPdf::41                      0                       # What write queue length does an incoming req see
system.mem_ctrls.wrQLenPdf::42                      0                       # What write queue length does an incoming req see
system.mem_ctrls.wrQLenPdf::43                      0                       # What write queue length does an incoming req see
system.mem_ctrls.wrQLenPdf::44                      0                       # What write queue length does an incoming req see
system.mem_ctrls.wrQLenPdf::45                      0                       # What write queue length does an incoming req see
system.mem_ctrls.wrQLenPdf::46                      0                       # What write queue length does an incoming req see
system.mem_ctrls.wrQLenPdf::47                      0                       # What write queue length does an incoming req see
system.mem_ctrls.wrQLenPdf::48                      0                       # What write queue length does an incoming req see
system.mem_ctrls.wrQLenPdf::49                      0                       # What write queue length does an incoming req see
system.mem_ctrls.wrQLenPdf::50                      0                       # What write queue length does an incoming req see
system.mem_ctrls.wrQLenPdf::51                      0                       # What write queue length does an incoming req see
system.mem_ctrls.wrQLenPdf::52                      0                       # What write queue length does an incoming req see
system.mem_ctrls.wrQLenPdf::53                      0                       # What write queue length does an incoming req see
system.mem_ctrls.wrQLenPdf::54                      0                       # What write queue length does an incoming req see
system.mem_ctrls.wrQLenPdf::55                      0                       # What write queue length does an incoming req see
system.mem_ctrls.wrQLenPdf::56                      0                       # What write queue length does an incoming req see
system.mem_ctrls.wrQLenPdf::57                      0                       # What write queue length does an incoming req see
system.mem_ctrls.wrQLenPdf::58                      0                       # What write queue length does an incoming req see
system.mem_ctrls.wrQLenPdf::59                      0                       # What write queue length does an incoming req see
system.mem_ctrls.wrQLenPdf::60                      0                       # What write queue length does an incoming req see
system.mem_ctrls.wrQLenPdf::61                      0                       # What write queue length does an incoming req see
system.mem_ctrls.wrQLenPdf::62                      0                       # What write queue length does an incoming req see
system.mem_ctrls.wrQLenPdf::63                      0                       # What write queue length does an incoming req see
system.mem_ctrls.bytesPerActivate::samples          117                       # Bytes accessed per row activation
system.mem_ctrls.bytesPerActivate::mean    259.282051                       # Bytes accessed per row activation
system.mem_ctrls.bytesPerActivate::gmean   175.671567                       # Bytes accessed per row activation
system.mem_ctrls.bytesPerActivate::stdev   256.254515                       # Bytes accessed per row activation
system.mem_ctrls.bytesPerActivate::0-127           34     29.06%     29.06% # Bytes accessed per row activation
system.mem_ctrls.bytesPerActivate::128-255           40     34.19%     63.25% # Bytes accessed per row activation
system.mem_ctrls.bytesPerActivate::256-383           18     15.38%     78.63% # Bytes accessed per row activation
system.mem_ctrls.bytesPerActivate::384-511            6      5.13%     83.76% # Bytes accessed per row activation
system.mem_ctrls.bytesPerActivate::512-639            6      5.13%     88.89% # Bytes accessed per row activation
system.mem_ctrls.bytesPerActivate::640-767            3      2.56%     91.45% # Bytes accessed per row activation
system.mem_ctrls.bytesPerActivate::768-895            3      2.56%     94.02% # Bytes accessed per row activation
system.mem_ctrls.bytesPerActivate::896-1023            2      1.71%     95.73% # Bytes accessed per row activation
system.mem_ctrls.bytesPerActivate::1024-1151            5      4.27%    100.00% # Bytes accessed per row activation
system.mem_ctrls.bytesPerActivate::total          117                       # Bytes accessed per row activation
system.mem_ctrls.rdPerTurnAround::samples            2                       # Reads before turning the bus around for writes
system.mem_ctrls.rdPerTurnAround::mean     233.500000                       # Reads before turning the bus around for writes
system.mem_ctrls.rdPerTurnAround::gmean    162.683742                       # Reads before turning the bus around for writes
system.mem_ctrls.rdPerTurnAround::stdev    236.880772                       # Reads before turning the bus around for writes
system.mem_ctrls.rdPerTurnAround::64-79             1     50.00%     50.00% # Reads before turning the bus around for writes
system.mem_ctrls.rdPerTurnAround::400-415            1     50.00%    100.00% # Reads before turning the bus around for writes
system.mem_ctrls.rdPerTurnAround::total             2                       # Reads before turning the bus around for writes
system.mem_ctrls.wrPerTurnAround::samples            2                       # Writes before turning the bus around for reads
system.mem_ctrls.wrPerTurnAround::mean             16                       # Writes before turning the bus around for reads
system.mem_ctrls.wrPerTurnAround::gmean     16.000000                       # Writes before turning the bus around for reads
system.mem_ctrls.wrPerTurnAround::16                2    100.00%    100.00% # Writes before turning the bus around for reads
system.mem_ctrls.wrPerTurnAround::total             2                       # Writes before turning the bus around for reads
system.mem_ctrls.bytesReadDRAM                  30336                       # Total number of bytes read from DRAM
system.mem_ctrls.bytesReadWrQ                     256                       # Total number of bytes read from write queue
system.mem_ctrls.bytesWritten                    2048                       # Total number of bytes written to DRAM
system.mem_ctrls.bytesReadSys                   30592                       # Total read bytes from the system interface side
system.mem_ctrls.bytesWrittenSys                 3456                       # Total written bytes from the system interface side
system.mem_ctrls.avgRdBW                       677.93                       # Average DRAM read bandwidth in MiByte/s
system.mem_ctrls.avgWrBW                        45.77                       # Average achieved write bandwidth in MiByte/s
system.mem_ctrls.avgRdBWSys                    683.65                       # Average system read bandwidth in MiByte/s
system.mem_ctrls.avgWrBWSys                     77.23                       # Average system write bandwidth in MiByte/s
system.mem_ctrls.peakBW                      12800.00                       # Theoretical peak bandwidth in MiByte/s
system.mem_ctrls.busUtil                         5.65                       # Data bus utilization in percentage
system.mem_ctrls.busUtilRead                     5.30                       # Data bus utilization in percentage for reads
system.mem_ctrls.busUtilWrite                    0.36                       # Data bus utilization in percentage for writes
system.mem_ctrls.totGap                      44681000                       # Total gap between requests
system.mem_ctrls.avgGap                      83986.84                       # Average gap between requests
system.mem_ctrls.masterReadBytes::.cpu.inst        20672                       # Per-master bytes read from memory
system.mem_ctrls.masterReadBytes::.cpu.data         9664                       # Per-master bytes read from memory
system.mem_ctrls.masterWriteBytes::.writebacks         2048                       # Per-master bytes write to memory
system.mem_ctrls.masterReadRate::.cpu.inst 461964780.548851370811                       # Per-master bytes read from memory rate (Bytes/sec)
system.mem_ctrls.masterReadRate::.cpu.data 215964959.327791184187                       # Per-master bytes read from memory rate (Bytes/sec)
system.mem_ctrls.masterWriteRate::.writebacks 45767408.599267005920                       # Per-master bytes write to memory rate (Bytes/sec)
system.mem_ctrls.masterReadAccesses::.cpu.inst          327                       # Per-master read serviced memory accesses
system.mem_ctrls.masterReadAccesses::.cpu.data          151                       # Per-master read serviced memory accesses
system.mem_ctrls.masterWriteAccesses::.writebacks           54                       # Per-master write serviced memory accesses
system.mem_ctrls.masterReadTotalLat::.cpu.inst      8259000                       # Per-master read total memory access latency
system.mem_ctrls.masterReadTotalLat::.cpu.data      4139750                       # Per-master read total memory access latency
system.mem_ctrls.masterWriteTotalLat::.writebacks    309364250                       # Per-master write total memory access latency
system.mem_ctrls.masterReadAvgLat::.cpu.inst     25256.88                       # Per-master read average memory access latency
system.mem_ctrls.masterReadAvgLat::.cpu.data     27415.56                       # Per-master read average memory access latency
system.mem_ctrls.masterWriteAvgLat::.writebacks   5728967.59                       # Per-master write average memory access latency
system.mem_ctrls.pageHitRate                    72.05                       # Row buffer hit rate, read and write combined
system.mem_ctrls.rank1.actEnergy               264180                       # Energy for activate commands per rank (pJ)
system.mem_ctrls.rank1.preEnergy               121440                       # Energy for precharge commands per rank (pJ)
system.mem_ctrls.rank1.readEnergy              971040                       # Energy for read commands per rank (pJ)
system.mem_ctrls.rank1.writeEnergy              52200                       # Energy for write commands per rank (pJ)
system.mem_ctrls.rank1.refreshEnergy     3073200.000000                       # Energy for refresh commands per rank (pJ)
system.mem_ctrls.rank1.actBackEnergy         16108200                       # Energy for active background per rank (pJ)
system.mem_ctrls.rank1.preBackEnergy          3618720                       # Energy for precharge background per rank (pJ)
system.mem_ctrls.rank1.actPowerDownEnergy            0                       # Energy for active power-down per rank (pJ)
system.mem_ctrls.rank1.prePowerDownEnergy            0                       # Energy for precharge power-down per rank (pJ)
system.mem_ctrls.rank1.selfRefreshEnergy            0                       # Energy for self refresh per rank (pJ)
system.mem_ctrls.rank1.totalEnergy           24208980                       # Total energy per rank (pJ)
system.mem_ctrls.rank1.averagePower        541.006972                       # Core power per rank (mW)
system.mem_ctrls.rank1.totalIdleTime                0                       # Total Idle time Per DRAM Rank
system.mem_ctrls.rank1.memoryStateTime::IDLE      9282500                       # Time in different power states
system.mem_ctrls.rank1.memoryStateTime::REF      1300000                       # Time in different power states
system.mem_ctrls.rank1.memoryStateTime::SREF            0                       # Time in different power states
system.mem_ctrls.rank1.memoryStateTime::PRE_PDN            0                       # Time in different power states
system.mem_ctrls.rank1.memoryStateTime::ACT     34165500                       # Time in different power states
system.mem_ctrls.rank1.memoryStateTime::ACT_PDN            0                       # Time in different power states
system.mem_ctrls.rank0.actEnergy               642600                       # Energy for activate commands per rank (pJ)
system.mem_ctrls.rank0.preEnergy               322575                       # Energy for precharge commands per rank (pJ)
system.mem_ctrls.rank0.readEnergy             2413320                       # Energy for read commands per rank (pJ)
system.mem_ctrls.rank0.writeEnergy             114840                       # Energy for write commands per rank (pJ)
system.mem_ctrls.rank0.refreshEnergy     3073200.000000                       # Energy for refresh commands per rank (pJ)
system.mem_ctrls.rank0.actBackEnergy         19366320                       # Energy for active background per rank (pJ)
system.mem_ctrls.rank0.preBackEnergy           875040                       # Energy for precharge background per rank (pJ)
system.mem_ctrls.rank0.actPowerDownEnergy            0                       # Energy for active power-down per rank (pJ)
system.mem_ctrls.rank0.prePowerDownEnergy            0                       # Energy for precharge power-down per rank (pJ)
system.mem_ctrls.rank0.selfRefreshEnergy            0                       # Energy for self refresh per rank (pJ)
system.mem_ctrls.rank0.totalEnergy           26807895                       # Total energy per rank (pJ)
system.mem_ctrls.rank0.averagePower        599.085881                       # Core power per rank (mW)
system.mem_ctrls.rank0.totalIdleTime                0                       # Total Idle time Per DRAM Rank
system.mem_ctrls.rank0.memoryStateTime::IDLE      2141000                       # Time in different power states
system.mem_ctrls.rank0.memoryStateTime::REF      1300000                       # Time in different power states
system.mem_ctrls.rank0.memoryStateTime::SREF            0                       # Time in different power states
system.mem_ctrls.rank0.memoryStateTime::PRE_PDN            0                       # Time in different power states
system.mem_ctrls.rank0.memoryStateTime::ACT     41307000                       # Time in different power states
system.mem_ctrls.rank0.memoryStateTime::ACT_PDN            0                       # Time in different power states
system.cpu_clk_domain.clock                       500                       # Clock period in ticks
system.cpu.numPwrStateTransitions                   1                       # Number of power state transitions
system.cpu.pwrStateResidencyTicks::ON        44748000                       # Cumulative time (in ticks) in various power states
system.cpu.icache.pwrStateResidencyTicks::UNDEFINED     44748000                       # Cumulative time (in ticks) in various power states
system.cpu.icache.demand_hits::.cpu.inst        12223                       # number of demand (read+write) hits
system.cpu.icache.demand_hits::total            12223                       # number of demand (read+write) hits
system.cpu.icache.overall_hits::.cpu.inst        12223                       # number of overall hits
system.cpu.icache.overall_hits::total           12223                       # number of overall hits
system.cpu.icache.demand_misses::.cpu.inst          327                       # number of demand (read+write) misses
system.cpu.icache.demand_misses::total            327                       # number of demand (read+write) misses
system.cpu.icache.overall_misses::.cpu.inst          327                       # number of overall misses
system.cpu.icache.overall_misses::total           327                       # number of overall misses
system.cpu.icache.demand_miss_latency::.cpu.inst     18806000                       # number of demand (read+write) miss cycles
system.cpu.icache.demand_miss_latency::total     18806000                       # number of demand (read+write) miss cycles
system.cpu.icache.overall_miss_latency::.cpu.inst     18806000                       # number of overall miss cycles
system.cpu.icache.overall_miss_latency::total     18806000                       # number of overall miss cycles
system.cpu.icache.demand_accesses::.cpu.inst        12550                       # number of demand (read+write) accesses
system.cpu.icache.demand_accesses::total        12550                       # number of demand (read+write) accesses
system.cpu.icache.overall_accesses::.cpu.inst        12550                       # number of overall (read+write) accesses
system.cpu.icache.overall_accesses::total        12550                       # number of overall (read+write) accesses
system.cpu.icache.demand_miss_rate::.cpu.inst     0.026056                       # miss rate for demand accesses
system.cpu.icache.demand_miss_rate::total     0.026056                       # miss rate for demand accesses
system.cpu.icache.overall_miss_rate::.cpu.inst     0.026056                       # miss rate for overall accesses
system.cpu.icache.overall_miss_rate::total     0.026056                       # miss rate for overall accesses
system.cpu.icache.demand_avg_miss_latency::.cpu.inst 57510.703364                       # average overall miss latency
system.cpu.icache.demand_avg_miss_latency::total 57510.703364                       # average overall miss latency
system.cpu.icache.overall_avg_miss_latency::.cpu.inst 57510.703364                       # average overall miss latency
system.cpu.icache.overall_avg_miss_latency::total 57510.703364                       # average overall miss latency
system.cpu.icache.blocked_cycles::no_mshrs            0                       # number of cycles access was blocked
system.cpu.icache.blocked_cycles::no_targets            0                       # number of cycles access was blocked
system.cpu.icache.blocked::no_mshrs                 0                       # number of cycles access was blocked
system.cpu.icache.blocked::no_targets               0                       # number of cycles access was blocked
system.cpu.icache.avg_blocked_cycles::no_mshrs          nan                       # average number of cycles each access was blocked
system.cpu.icache.avg_blocked_cycles::no_targets          nan                       # average number of cycles each access was blocked
system.cpu.icache.writebacks::.writebacks           55                       # number of writebacks
system.cpu.icache.writebacks::total                55                       # number of writebacks
system.cpu.icache.demand_mshr_misses::.cpu.inst          327                       # number of demand (read+write) MSHR misses
system.cpu.icache.demand_mshr_misses::total          327                       # number of demand (read+write) MSHR misses
system.cpu.icache.overall_mshr_misses::.cpu.inst          327                       # number of overall MSHR misses
system.cpu.icache.overall_mshr_misses::total          327                       # number of overall MSHR misses
system.cpu.icache.demand_mshr_miss_latency::.cpu.inst     18479000                       # number of demand (read+write) MSHR miss cycles
system.cpu.icache.demand_mshr_miss_latency::total     18479000                       # number of demand (read+write) MSHR miss cycles
system.cpu.icache.overall_mshr_miss_latency::.cpu.inst     18479000                       # number of overall MSHR miss cycles
system.cpu.icache.overall_mshr_miss_latency::total     18479000                       # number of overall MSHR miss cycles
system.cpu.icache.demand_mshr_miss_rate::.cpu.inst     0.026056                       # mshr miss rate for demand accesses
system.cpu.icache.demand_mshr_miss_rate::total     0.026056                       # mshr miss rate for demand accesses
system.cpu.icache.overall_mshr_miss_rate::.cpu.inst     0.026056                       # mshr miss rate for overall accesses
system.cpu.icache.overall_mshr_miss_rate::total     0.026056                       # mshr miss rate for overall accesses
system.cpu.icache.demand_avg_mshr_miss_latency::.cpu.inst 56510.703364                       # average overall mshr miss latency
system.cpu.icache.demand_avg_mshr_miss_latency::total 56510.703364                       # average overall mshr miss latency
system.cpu.icache.overall_avg_mshr_miss_latency::.cpu.inst 56510.703364                       # average overall mshr miss latency
system.cpu.icache.overall_avg_mshr_miss_latency::total 56510.703364                       # average overall mshr miss latency
system.cpu.icache.replacements                     55                       # number of replacements
system.cpu.icache.ReadReq_hits::.cpu.inst        12223                       # number of ReadReq hits
system.cpu.icache.ReadReq_hits::total           12223                       # number of ReadReq hits
system.cpu.icache.ReadReq_misses::.cpu.inst          327                       # number of ReadReq misses
system.cpu.icache.ReadReq_misses::total           327                       # number of ReadReq misses
system.cpu.icache.ReadReq_miss_latency::.cpu.inst     18806000                       # number of ReadReq miss cycles
system.cpu.icache.ReadReq_miss_latency::total     18806000                       # number of ReadReq miss cycles
system.cpu.icache.ReadReq_accesses::.cpu.inst        12550                       # number of ReadReq accesses(hits+misses)
system.cpu.icache.ReadReq_accesses::total        12550                       # number of ReadReq accesses(hits+misses)
system.cpu.icache.ReadReq_miss_rate::.cpu.inst     0.026056                       # miss rate for ReadReq accesses
system.cpu.icache.ReadReq_miss_rate::total     0.026056                       # miss rate for ReadReq accesses
system.cpu.icache.ReadReq_avg_miss_latency::.cpu.inst 57510.703364                       # average ReadReq miss latency
system.cpu.icache.ReadReq_avg_miss_latency::total 57510.703364                       # average ReadReq miss latency
system.cpu.icache.ReadReq_mshr_misses::.cpu.inst          327                       # number of ReadReq MSHR misses
system.cpu.icache.ReadReq_mshr_misses::total          327                       # number of ReadReq MSHR misses
system.cpu.icache.ReadReq_mshr_miss_latency::.cpu.inst     18479000                       # number of ReadReq MSHR miss cycles
system.cpu.icache.ReadReq_mshr_miss_latency::total     18479000                       # number of ReadReq MSHR miss cycles
system.cpu.icache.ReadReq_mshr_miss_rate::.cpu.inst     0.026056                       # mshr miss rate for ReadReq accesses
system.cpu.icache.ReadReq_mshr_miss_rate::total     0.026056                       # mshr miss rate for ReadReq accesses
system.cpu.icache.ReadReq_avg_mshr_miss_latency::.cpu.inst 56510.703364                       # average ReadReq mshr miss latency
system.cpu.icache.ReadReq_avg_mshr_miss_latency::total 56510.703364                       # average ReadReq mshr miss latency
system.cpu.icache.tags.pwrStateResidencyTicks::UNDEFINED     44748000                       # Cumulative time (in ticks) in various power states
system.cpu.icache.tags.tagsinuse           155.834252                       # Cycle average of tags in use
system.cpu.icache.tags.total_refs               12550                       # Total number of references to valid blocks.
system.cpu.icache.tags.sampled_refs               327                       # Sample count of references to valid blocks.
system.cpu.icache.tags.avg_refs             38.379205                       # Average number of references to valid blocks.
system.cpu.icache.tags.warmup_cycle             77000                       # Cycle when the warmup percentage was hit.
system.cpu.icache.tags.occ_blocks::.cpu.inst   155.834252                       # Average occupied blocks per requestor
system.cpu.icache.tags.occ_percent::.cpu.inst     0.304364                       # Average percentage of cache occupancy
system.cpu.icache.tags.occ_percent::total     0.304364                       # Average percentage of cache occupancy
system.cpu.icache.tags.occ_task_id_blocks::1024          272                       # Occupied blocks per task id
system.cpu.icache.tags.age_task_id_blocks_1024::0           37                       # Occupied blocks per task id
system.cpu.icache.tags.age_task_id_blocks_1024::1          235                       # Occupied blocks per task id
system.cpu.icache.tags.occ_task_id_percent::1024     0.531250                       # Percentage of cache occupancy per task id
system.cpu.icache.tags.tag_accesses             25427                       # Number of tag accesses
system.cpu.icache.tags.data_accesses            25427                       # Number of data accesses
system.cpu.dtb.walker.pwrStateResidencyTicks::UNDEFINED     44748000                       # Cumulative time (in ticks) in various power states
system.cpu.dtb.stage2_mmu.stage2_tlb.walker.pwrStateResidencyTicks::UNDEFINED     44748000                       # Cumulative time (in ticks) in various power states
system.cpu.itb.walker.pwrStateResidencyTicks::UNDEFINED     44748000                       # Cumulative time (in ticks) in various power states
system.cpu.itb.stage2_mmu.stage2_tlb.walker.pwrStateResidencyTicks::UNDEFINED     44748000                       # Cumulative time (in ticks) in various power states
system.cpu.dcache.pwrStateResidencyTicks::UNDEFINED     44748000                       # Cumulative time (in ticks) in various power states
system.cpu.dcache.demand_hits::.cpu.data         3991                       # number of demand (read+write) hits
system.cpu.dcache.demand_hits::total             3991                       # number of demand (read+write) hits
system.cpu.dcache.overall_hits::.cpu.data         4014                       # number of overall hits
system.cpu.dcache.overall_hits::total            4014                       # number of overall hits
system.cpu.dcache.demand_misses::.cpu.data          144                       # number of demand (read+write) misses
system.cpu.dcache.demand_misses::total            144                       # number of demand (read+write) misses
system.cpu.dcache.overall_misses::.cpu.data          154                       # number of overall misses
system.cpu.dcache.overall_misses::total           154                       # number of overall misses
system.cpu.dcache.demand_miss_latency::.cpu.data      8590500                       # number of demand (read+write) miss cycles
system.cpu.dcache.demand_miss_latency::total      8590500                       # number of demand (read+write) miss cycles
system.cpu.dcache.overall_miss_latency::.cpu.data      8590500                       # number of overall miss cycles
system.cpu.dcache.overall_miss_latency::total      8590500                       # number of overall miss cycles
system.cpu.dcache.demand_accesses::.cpu.data         4135                       # number of demand (read+write) accesses
system.cpu.dcache.demand_accesses::total         4135                       # number of demand (read+write) accesses
system.cpu.dcache.overall_accesses::.cpu.data         4168                       # number of overall (read+write) accesses
system.cpu.dcache.overall_accesses::total         4168                       # number of overall (read+write) accesses
system.cpu.dcache.demand_miss_rate::.cpu.data     0.034825                       # miss rate for demand accesses
system.cpu.dcache.demand_miss_rate::total     0.034825                       # miss rate for demand accesses
system.cpu.dcache.overall_miss_rate::.cpu.data     0.036948                       # miss rate for overall accesses
system.cpu.dcache.overall_miss_rate::total     0.036948                       # miss rate for overall accesses
system.cpu.dcache.demand_avg_miss_latency::.cpu.data 59656.250000                       # average overall miss latency
system.cpu.dcache.demand_avg_miss_latency::total 59656.250000                       # average overall miss latency
system.cpu.dcache.overall_avg_miss_latency::.cpu.data 55782.467532                       # average overall miss latency
system.cpu.dcache.overall_avg_miss_latency::total 55782.467532                       # average overall miss latency
system.cpu.dcache.blocked_cycles::no_mshrs            0                       # number of cycles access was blocked
system.cpu.dcache.blocked_cycles::no_targets            0                       # number of cycles access was blocked
system.cpu.dcache.blocked::no_mshrs                 0                       # number of cycles access was blocked
system.cpu.dcache.blocked::no_targets               0                       # number of cycles access was blocked
system.cpu.dcache.avg_blocked_cycles::no_mshrs          nan                       # average number of cycles each access was blocked
system.cpu.dcache.avg_blocked_cycles::no_targets          nan                       # average number of cycles each access was blocked
system.cpu.dcache.demand_mshr_hits::.cpu.data            3                       # number of demand (read+write) MSHR hits
system.cpu.dcache.demand_mshr_hits::total            3                       # number of demand (read+write) MSHR hits
system.cpu.dcache.overall_mshr_hits::.cpu.data            3                       # number of overall MSHR hits
system.cpu.dcache.overall_mshr_hits::total            3                       # number of overall MSHR hits
system.cpu.dcache.demand_mshr_misses::.cpu.data          141                       # number of demand (read+write) MSHR misses
system.cpu.dcache.demand_mshr_misses::total          141                       # number of demand (read+write) MSHR misses
system.cpu.dcache.overall_mshr_misses::.cpu.data          149                       # number of overall MSHR misses
system.cpu.dcache.overall_mshr_misses::total          149                       # number of overall MSHR misses
system.cpu.dcache.demand_mshr_miss_latency::.cpu.data      8283500                       # number of demand (read+write) MSHR miss cycles
system.cpu.dcache.demand_mshr_miss_latency::total      8283500                       # number of demand (read+write) MSHR miss cycles
system.cpu.dcache.overall_mshr_miss_latency::.cpu.data      8774500                       # number of overall MSHR miss cycles
system.cpu.dcache.overall_mshr_miss_latency::total      8774500                       # number of overall MSHR miss cycles
system.cpu.dcache.demand_mshr_miss_rate::.cpu.data     0.034099                       # mshr miss rate for demand accesses
system.cpu.dcache.demand_mshr_miss_rate::total     0.034099                       # mshr miss rate for demand accesses
system.cpu.dcache.overall_mshr_miss_rate::.cpu.data     0.035749                       # mshr miss rate for overall accesses
system.cpu.dcache.overall_mshr_miss_rate::total     0.035749                       # mshr miss rate for overall accesses
system.cpu.dcache.demand_avg_mshr_miss_latency::.cpu.data 58748.226950                       # average overall mshr miss latency
system.cpu.dcache.demand_avg_mshr_miss_latency::total 58748.226950                       # average overall mshr miss latency
system.cpu.dcache.overall_avg_mshr_miss_latency::.cpu.data 58889.261745                       # average overall mshr miss latency
system.cpu.dcache.overall_avg_mshr_miss_latency::total 58889.261745                       # average overall mshr miss latency
system.cpu.dcache.replacements                      0                       # number of replacements
system.cpu.dcache.ReadReq_hits::.cpu.data         1988                       # number of ReadReq hits
system.cpu.dcache.ReadReq_hits::total            1988                       # number of ReadReq hits
system.cpu.dcache.ReadReq_misses::.cpu.data           88                       # number of ReadReq misses
system.cpu.dcache.ReadReq_misses::total            88                       # number of ReadReq misses
system.cpu.dcache.ReadReq_miss_latency::.cpu.data      5183500                       # number of ReadReq miss cycles
system.cpu.dcache.ReadReq_miss_latency::total      5183500                       # number of ReadReq miss cycles
system.cpu.dcache.ReadReq_accesses::.cpu.data         2076                       # number of ReadReq accesses(hits+misses)
system.cpu.dcache.ReadReq_accesses::total         2076                       # number of ReadReq accesses(hits+misses)
system.cpu.dcache.ReadReq_miss_rate::.cpu.data     0.042389                       # miss rate for ReadReq accesses
system.cpu.dcache.ReadReq_miss_rate::total     0.042389                       # miss rate for ReadReq accesses
system.cpu.dcache.ReadReq_avg_miss_latency::.cpu.data 58903.409091                       # average ReadReq miss latency
system.cpu.dcache.ReadReq_avg_miss_latency::total 58903.409091                       # average ReadReq miss latency
system.cpu.dcache.ReadReq_mshr_hits::.cpu.data            3                       # number of ReadReq MSHR hits
system.cpu.dcache.ReadReq_mshr_hits::total            3                       # number of ReadReq MSHR hits
system.cpu.dcache.ReadReq_mshr_misses::.cpu.data           85                       # number of ReadReq MSHR misses
system.cpu.dcache.ReadReq_mshr_misses::total           85                       # number of ReadReq MSHR misses
system.cpu.dcache.ReadReq_mshr_miss_latency::.cpu.data      4932500                       # number of ReadReq MSHR miss cycles
system.cpu.dcache.ReadReq_mshr_miss_latency::total      4932500                       # number of ReadReq MSHR miss cycles
system.cpu.dcache.ReadReq_mshr_miss_rate::.cpu.data     0.040944                       # mshr miss rate for ReadReq accesses
system.cpu.dcache.ReadReq_mshr_miss_rate::total     0.040944                       # mshr miss rate for ReadReq accesses
system.cpu.dcache.ReadReq_avg_mshr_miss_latency::.cpu.data 58029.411765                       # average ReadReq mshr miss latency
system.cpu.dcache.ReadReq_avg_mshr_miss_latency::total 58029.411765                       # average ReadReq mshr miss latency
system.cpu.dcache.WriteReq_hits::.cpu.data         2003                       # number of WriteReq hits
system.cpu.dcache.WriteReq_hits::total           2003                       # number of WriteReq hits
system.cpu.dcache.WriteReq_misses::.cpu.data           56                       # number of WriteReq misses
system.cpu.dcache.WriteReq_misses::total           56                       # number of WriteReq misses
system.cpu.dcache.WriteReq_miss_latency::.cpu.data      3407000                       # number of WriteReq miss cycles
system.cpu.dcache.WriteReq_miss_latency::total      3407000                       # number of WriteReq miss cycles
system.cpu.dcache.WriteReq_accesses::.cpu.data         2059                       # number of WriteReq accesses(hits+misses)
system.cpu.dcache.WriteReq_accesses::total         2059                       # number of WriteReq accesses(hits+misses)
system.cpu.dcache.WriteReq_miss_rate::.cpu.data     0.027198                       # miss rate for WriteReq accesses
system.cpu.dcache.WriteReq_miss_rate::total     0.027198                       # miss rate for WriteReq accesses
system.cpu.dcache.WriteReq_avg_miss_latency::.cpu.data 60839.285714                       # average WriteReq miss latency
system.cpu.dcache.WriteReq_avg_miss_latency::total 60839.285714                       # average WriteReq miss latency
system.cpu.dcache.WriteReq_mshr_misses::.cpu.data           56                       # number of WriteReq MSHR misses
system.cpu.dcache.WriteReq_mshr_misses::total           56                       # number of WriteReq MSHR misses
system.cpu.dcache.WriteReq_mshr_miss_latency::.cpu.data      3351000                       # number of WriteReq MSHR miss cycles
system.cpu.dcache.WriteReq_mshr_miss_latency::total      3351000                       # number of WriteReq MSHR miss cycles
system.cpu.dcache.WriteReq_mshr_miss_rate::.cpu.data     0.027198                       # mshr miss rate for WriteReq accesses
system.cpu.dcache.WriteReq_mshr_miss_rate::total     0.027198                       # mshr miss rate for WriteReq accesses
system.cpu.dcache.WriteReq_avg_mshr_miss_latency::.cpu.data 59839.285714                       # average WriteReq mshr miss latency
system.cpu.dcache.WriteReq_avg_mshr_miss_latency::total 59839.285714                       # average WriteReq mshr miss latency
system.cpu.dcache.SoftPFReq_hits::.cpu.data           23                       # number of SoftPFReq hits
system.cpu.dcache.SoftPFReq_hits::total            23                       # number of SoftPFReq hits
system.cpu.dcache.SoftPFReq_misses::.cpu.data           10                       # number of SoftPFReq misses
system.cpu.dcache.SoftPFReq_misses::total           10                       # number of SoftPFReq misses
system.cpu.dcache.SoftPFReq_accesses::.cpu.data           33                       # number of SoftPFReq accesses(hits+misses)
system.cpu.dcache.SoftPFReq_accesses::total           33                       # number of SoftPFReq accesses(hits+misses)
system.cpu.dcache.SoftPFReq_miss_rate::.cpu.data     0.303030                       # miss rate for SoftPFReq accesses
system.cpu.dcache.SoftPFReq_miss_rate::total     0.303030                       # miss rate for SoftPFReq accesses
system.cpu.dcache.SoftPFReq_mshr_misses::.cpu.data            8                       # number of SoftPFReq MSHR misses
system.cpu.dcache.SoftPFReq_mshr_misses::total            8                       # number of SoftPFReq MSHR misses
system.cpu.dcache.SoftPFReq_mshr_miss_latency::.cpu.data       491000                       # number of SoftPFReq MSHR miss cycles
system.cpu.dcache.SoftPFReq_mshr_miss_latency::total       491000                       # number of SoftPFReq MSHR miss cycles
system.cpu.dcache.SoftPFReq_mshr_miss_rate::.cpu.data     0.242424                       # mshr miss rate for SoftPFReq accesses
system.cpu.dcache.SoftPFReq_mshr_miss_rate::total     0.242424                       # mshr miss rate for SoftPFReq accesses
system.cpu.dcache.SoftPFReq_avg_mshr_miss_latency::.cpu.data        61375                       # average SoftPFReq mshr miss latency
system.cpu.dcache.SoftPFReq_avg_mshr_miss_latency::total        61375                       # average SoftPFReq mshr miss latency
system.cpu.dcache.LoadLockedReq_hits::.cpu.data           11                       # number of LoadLockedReq hits
system.cpu.dcache.LoadLockedReq_hits::total           11                       # number of LoadLockedReq hits
system.cpu.dcache.LoadLockedReq_misses::.cpu.data            2                       # number of LoadLockedReq misses
system.cpu.dcache.LoadLockedReq_misses::total            2                       # number of LoadLockedReq misses
system.cpu.dcache.LoadLockedReq_miss_latency::.cpu.data       116000                       # number of LoadLockedReq miss cycles
system.cpu.dcache.LoadLockedReq_miss_latency::total       116000                       # number of LoadLockedReq miss cycles
system.cpu.dcache.LoadLockedReq_accesses::.cpu.data           13                       # number of LoadLockedReq accesses(hits+misses)
system.cpu.dcache.LoadLockedReq_accesses::total           13                       # number of LoadLockedReq accesses(hits+misses)
system.cpu.dcache.LoadLockedReq_miss_rate::.cpu.data     0.153846                       # miss rate for LoadLockedReq accesses
system.cpu.dcache.LoadLockedReq_miss_rate::total     0.153846                       # miss rate for LoadLockedReq accesses
system.cpu.dcache.LoadLockedReq_avg_miss_latency::.cpu.data        58000                       # average LoadLockedReq miss latency
system.cpu.dcache.LoadLockedReq_avg_miss_latency::total        58000                       # average LoadLockedReq miss latency
system.cpu.dcache.LoadLockedReq_mshr_misses::.cpu.data            2                       # number of LoadLockedReq MSHR misses
system.cpu.dcache.LoadLockedReq_mshr_misses::total            2                       # number of LoadLockedReq MSHR misses
system.cpu.dcache.LoadLockedReq_mshr_miss_latency::.cpu.data       114000                       # number of LoadLockedReq MSHR miss cycles
system.cpu.dcache.LoadLockedReq_mshr_miss_latency::total       114000                       # number of LoadLockedReq MSHR miss cycles
system.cpu.dcache.LoadLockedReq_mshr_miss_rate::.cpu.data     0.153846                       # mshr miss rate for LoadLockedReq accesses
system.cpu.dcache.LoadLockedReq_mshr_miss_rate::total     0.153846                       # mshr miss rate for LoadLockedReq accesses
system.cpu.dcache.LoadLockedReq_avg_mshr_miss_latency::.cpu.data        57000                       # average LoadLockedReq mshr miss latency
system.cpu.dcache.LoadLockedReq_avg_mshr_miss_latency::total        57000                       # average LoadLockedReq mshr miss latency
system.cpu.dcache.StoreCondReq_hits::.cpu.data           13                       # number of StoreCondReq hits
system.cpu.dcache.StoreCondReq_hits::total           13                       # number of StoreCondReq hits
system.cpu.dcache.StoreCondReq_accesses::.cpu.data           13                       # number of StoreCondReq accesses(hits+misses)
system.cpu.dcache.StoreCondReq_accesses::total           13                       # number of StoreCondReq accesses(hits+misses)
system.cpu.dcache.tags.pwrStateResidencyTicks::UNDEFINED     44748000                       # Cumulative time (in ticks) in various power states
system.cpu.dcache.tags.tagsinuse            96.070217                       # Cycle average of tags in use
system.cpu.dcache.tags.total_refs                4189                       # Total number of references to valid blocks.
system.cpu.dcache.tags.sampled_refs               151                       # Sample count of references to valid blocks.
system.cpu.dcache.tags.avg_refs             27.741722                       # Average number of references to valid blocks.
system.cpu.dcache.tags.warmup_cycle            148000                       # Cycle when the warmup percentage was hit.
system.cpu.dcache.tags.occ_blocks::.cpu.data    96.070217                       # Average occupied blocks per requestor
system.cpu.dcache.tags.occ_percent::.cpu.data     0.093819                       # Average percentage of cache occupancy
system.cpu.dcache.tags.occ_percent::total     0.093819                       # Average percentage of cache occupancy
system.cpu.dcache.tags.occ_task_id_blocks::1024          151                       # Occupied blocks per task id
system.cpu.dcache.tags.age_task_id_blocks_1024::0           13                       # Occupied blocks per task id
system.cpu.dcache.tags.age_task_id_blocks_1024::1          138                       # Occupied blocks per task id
system.cpu.dcache.tags.occ_task_id_percent::1024     0.147461                       # Percentage of cache occupancy per task id
system.cpu.dcache.tags.tag_accesses              8539                       # Number of tag accesses
system.cpu.dcache.tags.data_accesses             8539                       # Number of data accesses

---------- End Simulation Statistics   ----------
